Circuit: * C:\GitHub\MarkHarris\sim\LT3756-2_boost160w_seoul_with_pwm.asc

Direct Newton iteration for .op point succeeded.
Heightened Def Con from 0.00324374 to 0.00324375
Heightened Def Con from 0.00503556 to 0.00503556
Heightened Def Con from 0.00568977 to 0.00568977
Heightened Def Con from 0.00573186 to 0.00573186
Heightened Def Con from 0.00602591 to 0.00602591
Heightened Def Con from 0.00603881 to 0.00603881
Heightened Def Con from 0.00611479 to 0.00611479
Heightened Def Con from 0.00615216 to 0.00615216
Heightened Def Con from 0.00618914 to 0.00618914
Heightened Def Con from 0.00657888 to 0.00657888
Heightened Def Con from 0.00660137 to 0.00660138
Heightened Def Con from 0.00662371 to 0.00662371
Heightened Def Con from 0.00668935 to 0.00668936
Heightened Def Con from 0.00672189 to 0.00672189
Heightened Def Con from 0.00673278 to 0.00673279
Heightened Def Con from 0.00702054 to 0.00702054
Heightened Def Con from 0.00708072 to 0.00708072
Heightened Def Con from 0.00719842 to 0.00719842
Heightened Def Con from 0.00721768 to 0.00721769
Heightened Def Con from 0.007564 to 0.007564
Heightened Def Con from 0.00767108 to 0.00767109
Heightened Def Con from 0.00809864 to 0.00809865
Heightened Def Con from 0.00813994 to 0.00813995
Heightened Def Con from 0.00814779 to 0.00814779
Heightened Def Con from 0.00818045 to 0.00818045
Heightened Def Con from 0.00821268 to 0.00821269
Heightened Def Con from 0.00855386 to 0.00855386
Heightened Def Con from 0.00860623 to 0.00860624
Heightened Def Con from 0.00862898 to 0.00862899
Heightened Def Con from 0.00863653 to 0.00863654
Heightened Def Con from 0.0086441 to 0.0086441
Heightened Def Con from 0.00900747 to 0.00900748
Heightened Def Con from 0.00902854 to 0.00902854
Heightened Def Con from 0.00909161 to 0.00909162
Heightened Def Con from 0.00910567 to 0.00910567
Heightened Def Con from 0.00911268 to 0.00911268
Heightened Def Con from 0.00923601 to 0.00923602
Heightened Def Con from 0.00957213 to 0.00957213
Heightened Def Con from 0.00964909 to 0.00964909
Heightened Def Con from 0.00966852 to 0.00966853
Heightened Def Con from 0.00970703 to 0.00970703
Heightened Def Con from 0.00971989 to 0.00971989
Heightened Def Con from 0.0097263 to 0.0097263
Heightened Def Con from 0.0097391 to 0.0097391
Heightened Def Con from 0.0100187 to 0.0100187
Heightened Def Con from 0.0100492 to 0.0100492
Heightened Def Con from 0.0100676 to 0.0100676
Heightened Def Con from 0.010098 to 0.010098
Heightened Def Con from 0.0101162 to 0.0101163
Heightened Def Con from 0.0101466 to 0.0101466
Heightened Def Con from 0.0105408 to 0.0105408
Heightened Def Con from 0.0106041 to 0.0106041
Heightened Def Con from 0.0106269 to 0.0106269
Heightened Def Con from 0.0106498 to 0.0106498
Heightened Def Con from 0.0106668 to 0.0106668
Heightened Def Con from 0.0106725 to 0.0106725
Heightened Def Con from 0.0107235 to 0.0107235
Heightened Def Con from 0.0107404 to 0.0107404
Heightened Def Con from 0.0107461 to 0.0107461
Heightened Def Con from 0.0111141 to 0.0111141
Heightened Def Con from 0.0111785 to 0.0111785
Heightened Def Con from 0.0112319 to 0.0112319
Heightened Def Con from 0.0112372 to 0.0112372
Heightened Def Con from 0.0115055 to 0.0115055
Heightened Def Con from 0.0115262 to 0.0115262
Heightened Def Con from 0.0115364 to 0.0115364
Heightened Def Con from 0.0115672 to 0.0115672
Heightened Def Con from 0.0116131 to 0.0116131
Heightened Def Con from 0.012015 to 0.012015
Heightened Def Con from 0.0120393 to 0.0120393
Heightened Def Con from 0.0121121 to 0.0121121
Heightened Def Con from 0.0125375 to 0.0125375
Heightened Def Con from 0.0125513 to 0.0125513
Heightened Def Con from 0.0126435 to 0.0126435
Heightened Def Con from 0.0126846 to 0.0126846
Heightened Def Con from 0.0126938 to 0.0126938
Heightened Def Con from 0.0126983 to 0.0126983
Heightened Def Con from 0.0127211 to 0.0127211
Heightened Def Con from 0.0127257 to 0.0127257
Heightened Def Con from 0.0127302 to 0.0127302
Heightened Def Con from 0.0130225 to 0.0130225
Heightened Def Con from 0.0130358 to 0.0130358
Heightened Def Con from 0.0130403 to 0.0130403
Heightened Def Con from 0.0130713 to 0.0130713
Heightened Def Con from 0.0131154 to 0.0131154
Heightened Def Con from 0.0131242 to 0.0131242
Heightened Def Con from 0.0131594 to 0.0131594
Heightened Def Con from 0.0131682 to 0.0131682
Heightened Def Con from 0.0131726 to 0.0131726
Heightened Def Con from 0.013177 to 0.013177
Heightened Def Con from 0.0131814 to 0.0131814
Heightened Def Con from 0.0132121 to 0.0132121
Heightened Def Con from 0.0135261 to 0.0135261
Heightened Def Con from 0.0135474 to 0.0135474
Heightened Def Con from 0.0135645 to 0.0135645
Heightened Def Con from 0.0136285 to 0.0136285
Heightened Def Con from 0.0136964 to 0.0136964
Heightened Def Con from 0.0140045 to 0.0140045
Heightened Def Con from 0.0140754 to 0.0140754
Heightened Def Con from 0.0141293 to 0.0141293
Heightened Def Con from 0.0142451 to 0.0142451
Heightened Def Con from 0.0146471 to 0.0146471
Heightened Def Con from 0.0147245 to 0.0147245
Heightened Def Con from 0.0150445 to 0.0150445
Heightened Def Con from 0.0150526 to 0.0150526
Heightened Def Con from 0.0150726 to 0.0150726
Heightened Def Con from 0.0150806 to 0.0150806
Heightened Def Con from 0.0150846 to 0.0150846
Heightened Def Con from 0.0150966 to 0.0150966
Heightened Def Con from 0.0151167 to 0.0151167
Heightened Def Con from 0.0151207 to 0.0151207
Heightened Def Con from 0.0151327 to 0.0151327
Heightened Def Con from 0.0152207 to 0.0152207
Heightened Def Con from 0.0152327 to 0.0152327
Heightened Def Con from 0.0152367 to 0.0152367
Heightened Def Con from 0.0155439 to 0.0155439
Heightened Def Con from 0.0156702 to 0.0156702
Heightened Def Con from 0.0160121 to 0.0160121
Heightened Def Con from 0.016016 to 0.016016
Heightened Def Con from 0.0160472 to 0.0160472
Heightened Def Con from 0.0161096 to 0.0161096
Heightened Def Con from 0.0161214 to 0.0161214
Heightened Def Con from 0.0161604 to 0.0161604
Heightened Def Con from 0.0162384 to 0.0162384
Heightened Def Con from 0.0165507 to 0.0165507
Heightened Def Con from 0.0165585 to 0.0165585
Heightened Def Con from 0.0166049 to 0.0166049
Heightened Def Con from 0.0167365 to 0.0167366
Heightened Def Con from 0.0167404 to 0.0167404
Heightened Def Con from 0.0167443 to 0.0167443
Heightened Def Con from 0.0167481 to 0.0167481
Heightened Def Con from 0.0171541 to 0.0171541
Heightened Def Con from 0.0171617 to 0.0171617
Heightened Def Con from 0.017508 to 0.017508
Heightened Def Con from 0.0175118 to 0.0175118
Heightened Def Con from 0.0175232 to 0.0175232
Heightened Def Con from 0.0175308 to 0.0175308
Heightened Def Con from 0.0175423 to 0.0175423
Heightened Def Con from 0.0175461 to 0.0175461
Heightened Def Con from 0.0175537 to 0.0175537
Heightened Def Con from 0.0175803 to 0.0175803
Heightened Def Con from 0.0175918 to 0.0175918
Heightened Def Con from 0.01763 to 0.01763
Heightened Def Con from 0.0177254 to 0.0177254
Heightened Def Con from 0.0177445 to 0.0177445
Heightened Def Con from 0.0180269 to 0.0180269
Heightened Def Con from 0.0181973 to 0.0181973
Heightened Def Con from 0.0182125 to 0.0182125
Heightened Def Con from 0.0182276 to 0.0182276
Heightened Def Con from 0.0182352 to 0.0182352
Heightened Def Con from 0.0185041 to 0.0185041
Heightened Def Con from 0.0185154 to 0.0185155
Heightened Def Con from 0.018523 to 0.018523
Heightened Def Con from 0.0185267 to 0.0185267
Heightened Def Con from 0.0185607 to 0.0185607
Heightened Def Con from 0.0186021 to 0.0186021
Heightened Def Con from 0.0186474 to 0.0186474
Heightened Def Con from 0.0186512 to 0.0186512
Heightened Def Con from 0.0186625 to 0.0186625
Heightened Def Con from 0.01867 to 0.01867
Heightened Def Con from 0.0186738 to 0.0186738
Heightened Def Con from 0.0186776 to 0.0186776
Heightened Def Con from 0.0186927 to 0.0186927
Heightened Def Con from 0.0186965 to 0.0186965
Heightened Def Con from 0.0187153 to 0.0187153
Heightened Def Con from 0.0190079 to 0.0190079
Heightened Def Con from 0.0190116 to 0.0190116
Heightened Def Con from 0.0190229 to 0.0190229
Heightened Def Con from 0.0190342 to 0.0190342
Heightened Def Con from 0.0190454 to 0.0190454
Heightened Def Con from 0.0190867 to 0.0190867
Heightened Def Con from 0.0192033 to 0.0192033
Heightened Def Con from 0.0192444 to 0.0192445
Heightened Def Con from 0.0192482 to 0.0192482
Heightened Def Con from 0.0195078 to 0.0195078
Heightened Def Con from 0.0195116 to 0.0195116
Heightened Def Con from 0.0195266 to 0.0195266
Heightened Def Con from 0.0195787 to 0.0195787
Heightened Def Con from 0.0195899 to 0.0195899
Heightened Def Con from 0.0195937 to 0.0195937
Heightened Def Con from 0.0196798 to 0.0196798
Heightened Def Con from 0.0200041 to 0.0200041
Heightened Def Con from 0.0200302 to 0.0200302
Heightened Def Con from 0.0201232 to 0.0201232
Heightened Def Con from 0.0206377 to 0.0206378
Heightened Def Con from 0.02066 to 0.02066
Heightened Def Con from 0.0206785 to 0.0206785
Heightened Def Con from 0.020697 to 0.020697
Heightened Def Con from 0.0207008 to 0.0207008
Heightened Def Con from 0.0207045 to 0.0207045
Heightened Def Con from 0.0207231 to 0.0207231
Heightened Def Con from 0.0207268 to 0.0207268
Heightened Def Con from 0.0207306 to 0.0207306
Heightened Def Con from 0.020738 to 0.020738
Heightened Def Con from 0.0207417 to 0.0207417
Heightened Def Con from 0.0210115 to 0.0210115
Heightened Def Con from 0.0210152 to 0.0210152
Heightened Def Con from 0.02103 to 0.02103
Heightened Def Con from 0.0210374 to 0.0210374
Heightened Def Con from 0.0210411 to 0.0210411
Heightened Def Con from 0.0210448 to 0.0210448
Heightened Def Con from 0.0210486 to 0.0210486
Heightened Def Con from 0.021056 to 0.021056
Heightened Def Con from 0.021067 to 0.021067
Heightened Def Con from 0.0210708 to 0.0210708
Heightened Def Con from 0.0210745 to 0.0210745
Heightened Def Con from 0.0210819 to 0.0210819
Heightened Def Con from 0.021093 to 0.021093
Heightened Def Con from 0.0210967 to 0.0210967
Heightened Def Con from 0.0211004 to 0.0211004
Heightened Def Con from 0.0211153 to 0.0211153
Heightened Def Con from 0.021119 to 0.021119
Heightened Def Con from 0.0211227 to 0.0211227
Heightened Def Con from 0.0211338 to 0.0211338
Heightened Def Con from 0.0211449 to 0.0211449
Heightened Def Con from 0.0211708 to 0.0211708
Heightened Def Con from 0.0211855 to 0.0211855
Heightened Def Con from 0.0211893 to 0.0211893
Heightened Def Con from 0.0212263 to 0.0212263
Heightened Def Con from 0.02123 to 0.02123
Heightened Def Con from 0.0212411 to 0.0212411
Heightened Def Con from 0.0215078 to 0.0215078
Heightened Def Con from 0.0215263 to 0.0215263
Heightened Def Con from 0.0215337 to 0.0215337
Heightened Def Con from 0.0215374 to 0.0215374
Heightened Def Con from 0.0215522 to 0.0215522
Heightened Def Con from 0.0215559 to 0.0215559
Heightened Def Con from 0.0215596 to 0.0215596
Heightened Def Con from 0.0215707 to 0.0215707
Heightened Def Con from 0.0216002 to 0.0216002
Heightened Def Con from 0.0216039 to 0.0216039
Heightened Def Con from 0.0216076 to 0.0216076
Heightened Def Con from 0.0216113 to 0.0216113
Heightened Def Con from 0.021615 to 0.021615
Heightened Def Con from 0.0216483 to 0.0216483
Heightened Def Con from 0.0216557 to 0.0216557
Heightened Def Con from 0.0216668 to 0.0216668
Heightened Def Con from 0.0217112 to 0.0217112
Heightened Def Con from 0.0217149 to 0.0217149
Heightened Def Con from 0.0217334 to 0.0217334
Heightened Def Con from 0.0220742 to 0.0220742
Heightened Def Con from 0.0220926 to 0.0220926
Heightened Def Con from 0.0222289 to 0.0222289
Heightened Def Con from 0.0222436 to 0.0222436
Heightened Def Con from 0.0225151 to 0.0225151
Heightened Def Con from 0.0225188 to 0.0225188
Heightened Def Con from 0.0225335 to 0.0225335
Heightened Def Con from 0.0225372 to 0.0225372
Heightened Def Con from 0.0225666 to 0.0225666
Heightened Def Con from 0.0226034 to 0.0226034
Heightened Def Con from 0.0226107 to 0.0226107
Heightened Def Con from 0.0226328 to 0.0226328
Heightened Def Con from 0.0226475 to 0.0226476
Heightened Def Con from 0.0226549 to 0.0226549
Heightened Def Con from 0.0226586 to 0.0226586
Heightened Def Con from 0.0226806 to 0.0226806
Heightened Def Con from 0.0226917 to 0.0226917
Heightened Def Con from 0.022699 to 0.022699
Heightened Def Con from 0.0227027 to 0.0227027
Heightened Def Con from 0.0227101 to 0.0227101
Heightened Def Con from 0.0227211 to 0.0227211
Heightened Def Con from 0.0227248 to 0.0227248
Heightened Def Con from 0.0227285 to 0.0227285
Heightened Def Con from 0.0227469 to 0.0227469
Heightened Def Con from 0.0227506 to 0.0227506
Heightened Def Con from 0.0230077 to 0.0230077
Heightened Def Con from 0.0230151 to 0.0230151
Heightened Def Con from 0.0230188 to 0.0230188
Heightened Def Con from 0.0230261 to 0.0230261
Heightened Def Con from 0.0230335 to 0.0230335
Heightened Def Con from 0.023063 to 0.023063
Heightened Def Con from 0.0230741 to 0.0230741
Heightened Def Con from 0.0230778 to 0.0230778
Heightened Def Con from 0.0230815 to 0.0230815
Heightened Def Con from 0.0230925 to 0.0230925
Heightened Def Con from 0.0230962 to 0.0230962
Heightened Def Con from 0.0231108 to 0.0231108
Heightened Def Con from 0.0231182 to 0.0231182
Heightened Def Con from 0.0231293 to 0.0231293
Heightened Def Con from 0.0231366 to 0.0231366
Heightened Def Con from 0.0231476 to 0.0231476
Heightened Def Con from 0.023155 to 0.023155
Heightened Def Con from 0.023166 to 0.023166
Heightened Def Con from 0.0232209 to 0.0232209
Heightened Def Con from 0.0232283 to 0.0232283
Heightened Def Con from 0.0235077 to 0.0235077
Heightened Def Con from 0.0235408 to 0.0235408
Heightened Def Con from 0.0235444 to 0.0235444
Heightened Def Con from 0.0235481 to 0.0235481
Heightened Def Con from 0.0235664 to 0.0235664
Heightened Def Con from 0.0235738 to 0.0235738
Heightened Def Con from 0.0235811 to 0.0235812
Heightened Def Con from 0.0235921 to 0.0235922
Heightened Def Con from 0.0235958 to 0.0235958
Heightened Def Con from 0.0235995 to 0.0235995
Heightened Def Con from 0.0236032 to 0.0236032
Heightened Def Con from 0.0236252 to 0.0236252
Heightened Def Con from 0.0236289 to 0.0236289
Heightened Def Con from 0.0236362 to 0.0236362
Heightened Def Con from 0.0236399 to 0.0236399
Heightened Def Con from 0.0236471 to 0.0236471
Heightened Def Con from 0.0236508 to 0.0236508
Heightened Def Con from 0.0236545 to 0.0236545
Heightened Def Con from 0.0236692 to 0.0236692
Heightened Def Con from 0.0236765 to 0.0236765
Heightened Def Con from 0.0236839 to 0.0236839
Heightened Def Con from 0.0236949 to 0.0236949
Heightened Def Con from 0.0236986 to 0.0236986
Heightened Def Con from 0.0237022 to 0.0237022
Heightened Def Con from 0.0237352 to 0.0237352
Heightened Def Con from 0.0237388 to 0.0237388
Heightened Def Con from 0.0237425 to 0.0237425
Heightened Def Con from 0.0240113 to 0.0240113
Heightened Def Con from 0.0240701 to 0.0240701
Heightened Def Con from 0.0241031 to 0.0241031
Heightened Def Con from 0.0241361 to 0.0241361
Heightened Def Con from 0.0241617 to 0.0241617
Heightened Def Con from 0.0242094 to 0.0242094
Heightened Def Con from 0.0242204 to 0.0242204
Heightened Def Con from 0.0242387 to 0.0242387
Heightened Def Con from 0.0245737 to 0.0245737
Heightened Def Con from 0.0245994 to 0.0245994
Heightened Def Con from 0.0246104 to 0.0246104
Heightened Def Con from 0.0246251 to 0.0246251
Heightened Def Con from 0.024647 to 0.024647
Heightened Def Con from 0.0246837 to 0.0246837
Heightened Def Con from 0.0247277 to 0.0247277
Heightened Def Con from 0.0250956 to 0.0250956
Heightened Def Con from 0.025158 to 0.025158
Heightened Def Con from 0.0255993 to 0.0255993
Heightened Def Con from 0.025603 to 0.025603
Heightened Def Con from 0.0260552 to 0.0260552
Heightened Def Con from 0.0260844 to 0.0260844
Heightened Def Con from 0.0260954 to 0.0260954
Heightened Def Con from 0.0262346 to 0.0262346
Heightened Def Con from 0.026504 to 0.026504
Heightened Def Con from 0.0265406 to 0.0265406
Heightened Def Con from 0.0265442 to 0.0265442
Heightened Def Con from 0.0270296 to 0.0270296
Heightened Def Con from 0.0270698 to 0.0270698
Heightened Def Con from 0.0270954 to 0.0270954
Heightened Def Con from 0.0272236 to 0.0272236
Heightened Def Con from 0.0276246 to 0.0276246
Heightened Def Con from 0.0280442 to 0.0280442
Heightened Def Con from 0.0280697 to 0.0280697
Heightened Def Con from 0.0280843 to 0.0280843
Heightened Def Con from 0.0281392 to 0.0281392
Heightened Def Con from 0.0285442 to 0.0285442
Heightened Def Con from 0.0285769 to 0.0285769
Heightened Def Con from 0.0285842 to 0.0285842
Heightened Def Con from 0.0290187 to 0.0290187
Heightened Def Con from 0.0290405 to 0.0290405
Heightened Def Con from 0.0291391 to 0.0291391
Heightened Def Con from 0.0292048 to 0.0292048
Heightened Def Con from 0.0296136 to 0.0296136
Heightened Def Con from 0.0296173 to 0.0296173
Heightened Def Con from 0.0296721 to 0.0296721
Heightened Def Con from 0.0296904 to 0.0296904
Heightened Def Con from 0.0297013 to 0.0297013
Heightened Def Con from 0.0297269 to 0.0297269

Date: Thu Dec 19 14:14:43 2019
Total elapsed time: 83.988 seconds.

tnom = 27
temp = 27
method = modified trap
totiter = 6229503
traniter = 6229471
tranpoints = 1689091
accept = 1263562
rejected = 425889
matrix size = 76
fillins = 46
solver = Normal
Matrix Compiler1: 7.46 KB object code size  1.4/0.7/[0.4]
Matrix Compiler2: 6.71 KB object code size  0.6/0.8/[0.4]

